
   --- Expanded Deck Component Count ---
C's 1
R's 1
V's 1
tot: 3


    --- Expanded Netlist ---
* C:\Users\Jason\Documents\uw\ee538-autumn2020\Project\noise_sampling_method2.asc
v2 vnoise 0 pwl file=c:\users\jason\documents\uw\ee538-autumn2020\project\input_noise.csv
c1 vn_filt 0 10n
r1 vn_filt vnoise 10k
.tran 0 100m 0 .5u
.ic v(vn_filt)=0
.end

Direct Newton iteration for .op point succeeded.

Date: Sun Dec 13 12:51:14 2020
Total elapsed time: 36.284 seconds.

tnom = 27
temp = 27
method = modified trap
totiter = 8830491
traniter = 8830488
tranpoints = 4415245
accept = 4415245
rejected = 0
matrix size = 3
fillins = 0
solver = Normal
Matrix Compiler1: 50 bytes object code size  0.0/0.0/[0.0]
Matrix Compiler2: off  [0.0]/0.0/0.0

